Version 4.1
SHEET 1 1344 684
WIRE 256 -288 256 -304
WIRE -48 -272 -80 -272
WIRE 48 -272 16 -272
WIRE 224 -272 48 -272
WIRE 48 -256 48 -272
WIRE 336 -256 288 -256
WIRE 384 -256 336 -256
WIRE 544 -256 464 -256
WIRE 592 -256 544 -256
WIRE 720 -256 672 -256
WIRE 224 -240 96 -240
WIRE 256 -192 256 -224
WIRE 544 -160 544 -256
WIRE 592 -160 544 -160
WIRE 720 -160 720 -256
WIRE 720 -160 656 -160
WIRE 48 -144 48 -176
WIRE 720 -96 720 -160
WIRE 96 -48 96 -240
WIRE 208 -48 96 -48
WIRE 336 -48 336 -256
WIRE 336 -48 288 -48
WIRE 96 32 96 -48
WIRE 624 96 624 80
WIRE 544 112 544 -160
WIRE 592 112 544 112
WIRE 96 128 96 112
WIRE 704 128 656 128
WIRE 800 128 704 128
WIRE 592 144 544 144
WIRE 624 192 624 160
WIRE 96 240 96 192
WIRE 208 240 96 240
WIRE 320 240 288 240
WIRE 544 416 544 144
WIRE 592 416 544 416
WIRE 704 416 704 128
WIRE 704 416 672 416
WIRE 240 480 240 464
WIRE 96 496 96 240
WIRE 208 496 96 496
WIRE 320 512 320 240
WIRE 320 512 272 512
WIRE 352 512 320 512
WIRE 544 512 544 416
WIRE 544 512 432 512
WIRE 592 512 544 512
WIRE 704 512 704 416
WIRE 704 512 656 512
WIRE -80 528 -112 528
WIRE 48 528 -16 528
WIRE 208 528 48 528
WIRE 48 544 48 528
WIRE 240 576 240 544
WIRE 48 656 48 624
FLAG 48 -144 0
FLAG 48 656 0
FLAG 720 -96 0
FLAG -112 528 Vin1
IOPIN -112 528 In
FLAG -80 -272 Vin2
IOPIN -80 -272 In
FLAG 800 128 Vo
IOPIN 800 128 Out
FLAG 256 -304 -Vcc
IOPIN 256 -304 In
FLAG 240 576 -Vcc
IOPIN 240 576 In
FLAG 624 80 -Vcc
IOPIN 624 80 In
FLAG 256 -192 +Vcc
IOPIN 256 -192 In
FLAG 240 464 +Vcc
IOPIN 240 464 In
FLAG 624 192 +Vcc
IOPIN 624 192 In
SYMBOL lib\\lib\\sym\\ZZZ\\OpAmps\\OP27 256 -192 M180
SYMATTR InstName U2
SYMBOL lib\\lib\\sym\\ZZZ\\OpAmps\\OP27 240 448 R0
SYMATTR InstName U1
SYMBOL lib\\lib\\sym\\ZZZ\\OpAmps\\OP27 624 192 M180
SYMATTR InstName U3
SYMBOL res 80 16 R0
SYMATTR InstName R1
SYMATTR Value {R1}
SYMATTR SpiceLine tol=1
SYMBOL cap 80 128 R0
SYMATTR InstName C1
SYMATTR Value {C1}
SYMBOL res 304 224 R90
WINDOW 0 0 56 VBottom 2
WINDOW 3 32 56 VTop 2
SYMATTR InstName R2
SYMATTR Value {R2}
SYMBOL res 448 496 R90
WINDOW 0 0 56 VBottom 2
WINDOW 3 32 56 VTop 2
SYMATTR InstName R3b
SYMATTR Value {R3}
SYMATTR SpiceLine tol=1
SYMBOL res 480 -272 R90
WINDOW 0 0 56 VBottom 2
WINDOW 3 32 56 VTop 2
SYMATTR InstName R3a
SYMATTR Value {R3}
SYMATTR SpiceLine tol=1
SYMBOL res 304 -64 R90
WINDOW 0 0 56 VBottom 2
WINDOW 3 32 56 VTop 2
SYMATTR InstName R2b
SYMATTR Value {R2}
SYMATTR SpiceLine tol=1
SYMBOL res 64 -160 R180
WINDOW 0 45 19 Left 2
WINDOW 3 36 40 Left 2
SYMATTR InstName RCa
SYMATTR Value {Rc}
SYMBOL cap 16 -288 R90
WINDOW 0 0 32 VBottom 2
WINDOW 3 32 32 VTop 2
SYMATTR InstName CCa
SYMATTR Value {Cc}
SYMBOL cap -16 512 R90
WINDOW 0 0 32 VBottom 2
WINDOW 3 32 32 VTop 2
SYMATTR InstName CCb
SYMATTR Value {Cc}
SYMBOL res 32 528 R0
SYMATTR InstName RCb
SYMATTR Value {Rc}
SYMBOL res 688 400 R90
WINDOW 0 0 56 VBottom 2
WINDOW 3 32 56 VTop 2
SYMATTR InstName R4b
SYMATTR Value {R4}
SYMATTR SpiceLine tol=1
SYMBOL cap 656 496 R90
WINDOW 0 0 32 VBottom 2
WINDOW 3 32 32 VTop 2
SYMATTR InstName C4b
SYMATTR Value {C4}
SYMBOL res 688 -272 R90
WINDOW 0 0 56 VBottom 2
WINDOW 3 32 56 VTop 2
SYMATTR InstName R4a
SYMATTR Value {R4}
SYMATTR SpiceLine tol=1
SYMBOL cap 656 -176 R90
WINDOW 0 0 32 VBottom 2
WINDOW 3 32 32 VTop 2
SYMATTR InstName C4a
SYMATTR Value {C4}
TEXT -128 -400 Left 2 !.param R1=100k R2=10Meg C1=4.7u Rc=10Meg Cc=10u R3=1Meg R4=1Meg C4=33p
