Version 4.1
SHEET 1 972 688
WIRE -240 -16 -320 -16
WIRE -240 16 -240 -16
WIRE -448 64 -448 -16
WIRE -320 64 -320 -16
WIRE 288 64 288 0
WIRE -832 80 -832 16
WIRE 176 160 128 160
WIRE -448 176 -448 144
WIRE 448 176 352 176
WIRE -832 192 -832 160
WIRE -320 192 -320 144
WIRE 176 192 128 192
WIRE 448 208 448 176
WIRE 448 320 448 288
WIRE 288 352 288 288
WIRE -1040 384 -1040 320
WIRE -272 416 -304 416
WIRE -128 416 -192 416
WIRE -1040 528 -1040 464
WIRE -416 528 -512 528
WIRE -304 528 -304 416
WIRE -304 528 -336 528
WIRE -256 528 -304 528
WIRE -128 544 -128 416
WIRE -128 544 -192 544
WIRE -256 560 -304 560
FLAG -128 544 Sig2
FLAG -304 560 common
FLAG -512 528 Sig1
FLAG 128 160 Sig1
FLAG 128 192 Sig2
FLAG -1040 528 0
FLAG -1040 320 common
FLAG -832 192 common
FLAG -832 16 Sig1
FLAG 448 320 0
FLAG 448 176 Vout
FLAG -240 16 0
FLAG -448 176 0
FLAG -448 -16 V+
FLAG -320 192 V-
FLAG 288 352 V-
FLAG 288 0 V+
SYMBOL Instrument 288 176 R0
WINDOW 39 61 -293 Bottom 2
SYMATTR SpiceLine R1=140k R2=10Meg Rc=10Meg Cc=330n R3=10Meg R4=10Meg C4=800p C1=10u
SYMATTR InstName X1
SYMBOL lib\\lib\\sym\\opamp -224 480 R0
SYMATTR InstName U1
SYMBOL res -176 400 R90
WINDOW 0 0 94 VBottom 2
WINDOW 3 -29 36 VTop 2
SYMATTR InstName R2
SYMATTR Value 10k
SYMBOL res -320 512 R90
WINDOW 0 -2 79 VBottom 2
WINDOW 3 -32 30 VTop 2
SYMATTR InstName R3
SYMATTR Value 10k
SYMBOL voltage -832 64 R0
WINDOW 123 24 124 Left 2
WINDOW 39 0 0 Left 0
SYMATTR Value2 AC 1 0
SYMATTR InstName V1
SYMATTR Value SINE(0 10m 10)
SYMBOL voltage -1040 368 R0
WINDOW 123 0 0 Left 0
WINDOW 39 0 0 Left 0
SYMATTR InstName V2
SYMATTR Value SINE(10m 5)
SYMBOL res 464 304 R180
WINDOW 0 36 76 Left 2
WINDOW 3 36 40 Left 2
SYMATTR InstName R1
SYMATTR Value 10k
SYMBOL voltage -448 48 R0
WINDOW 123 0 0 Left 0
WINDOW 39 0 0 Left 0
SYMATTR InstName V3
SYMATTR Value 10
SYMBOL voltage -320 48 R0
WINDOW 123 0 0 Left 0
WINDOW 39 0 0 Left 0
SYMATTR InstName V4
SYMATTR Value 10
TEXT -1072 624 Left 2 ;.tran 100m
TEXT -912 672 Left 2 !.ac dec 20 0.1 500
