Version 4.1
SHEET 1 972 1232
WIRE -240 -16 -320 -16
WIRE -240 16 -240 -16
WIRE -448 64 -448 -16
WIRE -320 64 -320 -16
WIRE 288 64 288 0
WIRE 176 160 128 160
WIRE -448 176 -448 144
WIRE 448 176 352 176
WIRE -320 192 -320 144
WIRE 176 192 128 192
WIRE 448 208 448 176
WIRE 448 320 448 288
WIRE 288 352 288 288
WIRE -1040 384 -1040 320
WIRE -272 416 -304 416
WIRE -128 416 -192 416
WIRE -1040 528 -1040 464
WIRE -416 528 -512 528
WIRE -304 528 -304 416
WIRE -304 528 -336 528
WIRE -256 528 -304 528
WIRE -128 544 -128 416
WIRE -128 544 -192 544
WIRE -256 560 -304 560
WIRE -880 816 -880 752
WIRE -880 928 -880 896
WIRE -880 928 -1120 928
WIRE -880 960 -880 928
WIRE -1120 992 -1120 928
WIRE -880 1136 -880 1040
FLAG -880 1136 Sig2
FLAG -304 560 common
FLAG -512 528 Sig1
FLAG 128 192 Sig1
FLAG 128 160 Sig2
FLAG -1040 528 0
FLAG -1040 320 common
FLAG -1488 304 common
FLAG -880 752 Sig1
FLAG 448 320 0
FLAG 448 176 Vout
FLAG 288 352 V-
FLAG 288 0 V+
FLAG -1120 992 0
FLAG -240 16 0
FLAG -448 176 0
FLAG -448 -16 V+
FLAG -320 192 V-
SYMBOL Instrument 288 176 R0
WINDOW 39 61 -293 Bottom 2
SYMATTR SpiceLine R1=100k R2=10Meg C1=4.7u Rc=10Meg Cc=10u R3=1Meg R4=1Meg C4=33p
SYMATTR InstName X1
SYMBOL lib\\lib\\sym\\opamp -224 480 R0
SYMATTR InstName U1
SYMBOL res -176 400 R90
WINDOW 0 0 94 VBottom 2
WINDOW 3 -29 36 VTop 2
SYMATTR InstName R2
SYMATTR Value 10k
SYMBOL res -320 512 R90
WINDOW 0 -2 79 VBottom 2
WINDOW 3 -32 30 VTop 2
SYMATTR InstName R3
SYMATTR Value 10k
SYMBOL voltage -880 800 R0
WINDOW 123 24 124 Left 2
WINDOW 39 0 0 Left 0
SYMATTR Value2 AC 1 0
SYMATTR InstName V1
SYMATTR Value SINE(0 10m {FREQ})
SYMBOL voltage -1040 368 R0
WINDOW 123 0 0 Left 0
WINDOW 39 0 0 Left 0
SYMATTR InstName V2
SYMATTR Value SINE(10m 5)
SYMBOL res 464 304 R180
WINDOW 0 36 76 Left 2
WINDOW 3 36 40 Left 2
SYMATTR InstName R1
SYMATTR Value 10k
SYMBOL voltage -448 48 R0
WINDOW 123 0 0 Left 0
WINDOW 39 0 0 Left 0
SYMATTR InstName V3
SYMATTR Value 10
SYMBOL voltage -320 48 R0
WINDOW 123 0 0 Left 0
WINDOW 39 0 0 Left 0
SYMATTR InstName V4
SYMATTR Value 10
SYMBOL voltage -880 944 R0
WINDOW 123 24 124 Left 2
WINDOW 39 0 0 Left 0
SYMATTR Value2 AC 1 0
SYMATTR InstName V5
SYMATTR Value SINE(0 10m {FREQ})
TEXT -504 -272 Left 2 ;.tran 0 10 0
TEXT -488 -376 Left 2 !.ac dec 20 1u 1Meg
TEXT -256 616 Left 2 !.lib opamp.sub
TEXT -496 -208 Left 2 !.param FREQ=0.5
TEXT -504 -304 Left 2 ;.STEP dec param FREQ 0.5 150 3
