Version 4.1
SHEET 1 964 692
WIRE 192 -208 144 -208
WIRE 192 -176 192 -208
WIRE 144 -128 144 -208
WIRE -272 -112 -336 -112
WIRE -128 -112 -208 -112
WIRE 112 -112 -128 -112
WIRE -544 -96 -544 -144
WIRE 256 -96 176 -96
WIRE 304 -96 256 -96
WIRE 400 -96 304 -96
WIRE 512 -96 480 -96
WIRE 592 -96 512 -96
WIRE 720 -96 656 -96
WIRE -128 -80 -128 -112
WIRE 112 -80 -16 -80
WIRE 144 -48 144 -64
WIRE -544 0 -544 -16
WIRE 512 0 512 -96
WIRE 576 0 512 0
WIRE 720 0 720 -96
WIRE 720 0 656 0
WIRE 720 32 720 0
WIRE -16 48 -16 -80
WIRE 64 48 -16 48
WIRE 256 48 256 -96
WIRE 256 48 144 48
WIRE 688 64 640 64
WIRE 688 96 688 64
WIRE -16 112 -16 48
WIRE 640 160 640 64
WIRE 512 176 512 0
WIRE 608 176 512 176
WIRE 720 192 672 192
WIRE 832 192 720 192
WIRE 608 208 512 208
WIRE -16 224 -16 192
WIRE 640 240 640 224
WIRE -16 400 -16 288
WIRE 64 400 -16 400
WIRE 256 400 144 400
WIRE 512 448 512 208
WIRE 576 448 512 448
WIRE 720 448 720 192
WIRE 720 448 656 448
WIRE -16 528 -16 400
WIRE 112 528 -16 528
WIRE 256 544 256 400
WIRE 256 544 176 544
WIRE 288 544 256 544
WIRE 400 544 288 544
WIRE 512 544 512 448
WIRE 512 544 480 544
WIRE 592 544 512 544
WIRE 720 544 720 448
WIRE 720 544 656 544
WIRE -272 560 -336 560
WIRE -128 560 -208 560
WIRE 112 560 -128 560
WIRE -128 592 -128 560
WIRE 144 592 144 576
FLAG 192 -176 0
FLAG 144 592 0
FLAG 688 96 0
FLAG -544 0 0
FLAG -544 -144 VCC
FLAG 144 -48 VCC
FLAG 144 512 VCC
FLAG 640 240 VCC
FLAG -128 0 0
FLAG -128 672 0
FLAG 720 32 0
FLAG 304 -96 Vo2
FLAG 288 544 Vo1
FLAG 832 192 Vout
IOPIN 832 192 Out
FLAG -336 -112 Vin2
IOPIN -336 -112 In
FLAG -336 560 Vin1
IOPIN -336 560 In
SYMBOL OpAmps\\OP27 144 480 R0
SYMATTR InstName U1
SYMBOL OpAmps\\OP27 144 -32 M180
SYMATTR InstName U2
SYMBOL OpAmps\\OP27 640 256 M180
SYMATTR InstName U3
SYMBOL res 0 208 R180
WINDOW 0 36 76 Left 2
WINDOW 3 36 40 Left 2
SYMATTR InstName R1
SYMATTR Value 100
SYMBOL voltage -544 -112 R0
SYMATTR InstName V1
SYMATTR Value 10
SYMBOL cap -32 224 R0
SYMATTR InstName C1
SYMATTR Value 10n
SYMBOL res 160 32 R90
WINDOW 0 0 56 VBottom 2
WINDOW 3 32 56 VTop 2
SYMATTR InstName R_2A
SYMATTR Value 50k
SYMBOL res 160 384 R90
WINDOW 0 0 56 VBottom 2
WINDOW 3 32 56 VTop 2
SYMATTR InstName R_2B
SYMATTR Value 50k
SYMBOL res 672 -16 R90
WINDOW 0 0 56 VBottom 2
WINDOW 3 32 56 VTop 2
SYMATTR InstName R_4A
SYMATTR Value 10k
SYMBOL res 672 432 R90
WINDOW 0 0 56 VBottom 2
WINDOW 3 32 56 VTop 2
SYMATTR InstName R_4B
SYMATTR Value 10k
SYMBOL res -112 688 R180
WINDOW 0 36 76 Left 2
WINDOW 3 36 40 Left 2
SYMATTR InstName R_CB
SYMATTR Value 10Meg
SYMBOL res -112 16 R180
WINDOW 0 36 76 Left 2
WINDOW 3 36 40 Left 2
SYMATTR InstName R_CA
SYMATTR Value 10Meg
SYMBOL cap -208 -128 R90
WINDOW 0 0 32 VBottom 2
WINDOW 3 32 32 VTop 2
SYMATTR InstName C_CA
SYMATTR Value 30n
SYMBOL cap -208 544 R90
WINDOW 0 0 32 VBottom 2
WINDOW 3 32 32 VTop 2
SYMATTR InstName C_CB
SYMATTR Value 30n
SYMBOL res 496 -112 R90
WINDOW 0 0 56 VBottom 2
WINDOW 3 32 56 VTop 2
SYMATTR InstName R_3A
SYMATTR Value 10k
SYMBOL res 496 528 R90
WINDOW 0 0 56 VBottom 2
WINDOW 3 32 56 VTop 2
SYMATTR InstName R_3B
SYMATTR Value 10k
SYMBOL cap 656 -112 R90
WINDOW 0 0 32 VBottom 2
WINDOW 3 32 32 VTop 2
SYMATTR InstName C_4A
SYMATTR Value 100n
SYMBOL cap 656 528 R90
WINDOW 0 0 32 VBottom 2
WINDOW 3 32 32 VTop 2
SYMATTR InstName C_4B
SYMATTR Value 100n
