Version 4.1
SHEET 1 1020 680
WIRE -592 16 -688 16
WIRE 224 16 16 16
WIRE -1408 48 -1472 48
WIRE 528 48 448 48
WIRE -1472 80 -1472 48
WIRE -688 80 -688 16
WIRE 224 80 64 80
WIRE -1408 144 -1408 48
WIRE -1264 144 -1264 80
WIRE -1056 160 -1056 112
WIRE -112 176 -144 176
WIRE 0 176 -32 176
WIRE 64 192 64 80
WIRE -688 224 -688 160
WIRE -1264 240 -1264 224
WIRE -1408 272 -1408 224
WIRE -1056 272 -1056 240
WIRE -240 272 -288 272
WIRE -144 272 -144 176
WIRE -144 272 -160 272
WIRE -112 272 -144 272
WIRE 0 288 0 176
WIRE 0 288 -48 288
WIRE 64 288 64 192
WIRE 64 288 0 288
WIRE -112 304 -144 304
WIRE -144 336 -144 304
WIRE -1056 384 -1056 352
FLAG -592 16 Vsig
FLAG -288 272 Vsig
FLAG 16 16 Vsig
FLAG -1264 80 Vpos
FLAG -80 256 Vpos
FLAG -1264 240 0
FLAG -1472 80 0
FLAG -1408 272 Vneg
FLAG -80 320 Vneg
FLAG 528 48 OUTPUT
IOPIN 528 48 Out
FLAG 64 192 Vsig_inv
FLAG -1056 112 common
FLAG -688 224 common
FLAG -144 336 common
FLAG -1056 384 0
SYMBOL instrumentation_amplifier 128 -64 R0
SYMATTR InstName instrumentation_amp
SYMBOL voltage -688 64 R0
WINDOW 123 24 124 Left 2
WINDOW 39 0 0 Left 0
SYMATTR InstName V1
SYMATTR Value SINE(0 10m 100)
SYMATTR Value2 AC 1
SYMBOL res -144 256 R90
WINDOW 0 0 56 VBottom 2
WINDOW 3 32 56 VTop 2
SYMATTR InstName R1
SYMATTR Value 10k
SYMBOL res -16 160 R90
WINDOW 0 0 56 VBottom 2
WINDOW 3 32 56 VTop 2
SYMATTR InstName R2
SYMATTR Value 10k
SYMBOL OpAmps\\UniversalOpAmp2 -80 288 R0
SYMATTR InstName U1
SYMBOL voltage -1264 128 R0
SYMATTR InstName V2
SYMATTR Value 10
SYMBOL voltage -1408 128 R0
SYMATTR InstName V3
SYMATTR Value 10
SYMBOL voltage -1056 256 R0
WINDOW 123 0 0 Left 0
WINDOW 39 0 0 Left 0
SYMATTR InstName V5
SYMATTR Value SINE(2 10m 100k)
SYMBOL bv -1056 144 R0
SYMATTR InstName B1
SYMATTR Value V=white(2e6*time)/10
TEXT -928 552 Left 2 !.tran 0 1 0 1m
